28
CD-CONH2
C          4.56095       -1.12802        0.06383
C          3.28849       -1.62463        0.06375
C          2.16033       -0.75107        0.02725
C          2.38907        0.67278       -0.01014
C          3.73447        1.14810       -0.00845
C          4.78669        0.27737        0.02736
C          0.84818       -1.22941        0.02626
C          1.29234        1.53872       -0.04766
C         -0.01896        1.06013       -0.04847
C         -0.24799       -0.36283       -0.01037
C         -1.58701       -0.84113       -0.01234
H         -1.78019       -1.90786        0.00379
C         -2.65434        0.01819       -0.03388
C         -2.42227        1.42816       -0.08892
C         -1.15190        1.92656       -0.09708
H          0.67292       -2.30087        0.05352
H          5.40968       -1.80304        0.09142
H          3.11432       -2.69577        0.09103
H          3.90637        2.21966       -0.03666
H          5.80446        0.65294        0.02798
H          1.46563        2.61077       -0.07756
H         -3.26093        2.11064       -0.17112
H         -0.98516        2.99773       -0.15384
C         -4.02793       -0.58343       -0.01562
O         -4.23187       -1.75268       -0.29147
N         -5.05274        0.27177        0.31288
H         -5.95242       -0.16346        0.44682
H         -4.87132        1.10140        0.85315
