26
CD-NH2
C         -4.11650        0.49244       -0.00001
C         -2.99446        1.28029       -0.00000
C         -1.68720        0.70174        0.00000
C         -1.56358       -0.73918        0.00002
C         -2.76098       -1.52338        0.00002
C         -3.99621       -0.92902       -0.00001
C         -0.52067        1.47909       -0.00000
C         -0.28799       -1.31879        0.00002
C          0.88079       -0.54255       -0.00001
C          0.75119        0.89891       -0.00001
C          1.94969        1.68087        0.00003
H          1.86274        2.76008        0.00008
C          3.18253        1.09499        0.00001
C          3.32060       -0.33588       -0.00010
C          2.18322       -1.12071       -0.00006
H         -0.60736        2.55959       -0.00000
H         -5.09991        0.94260       -0.00001
H         -3.08013        2.35986        0.00002
H         -2.66998       -2.60233        0.00003
H         -4.89145       -1.53634       -0.00002
H         -0.20261       -2.39904        0.00005
H          4.07769        1.70461        0.00009
H          2.27059       -2.20057       -0.00012
N          4.59420       -0.87741        0.00006
H          5.40548       -0.28968       -0.00032
H          4.73289       -1.86994        0.00037
