25
CD-OH
C         -4.10406        0.50543       -0.00001
C         -2.98017        1.28909        0.00000
C         -1.67432        0.70457        0.00000
C         -1.55889       -0.73755       -0.00000
C         -2.75931       -1.51730       -0.00000
C         -3.99106       -0.91731       -0.00000
C         -0.50700        1.47792       -0.00000
C         -0.28694       -1.32321        0.00001
C          0.88295       -0.55038        0.00000
C          0.76483        0.89235       -0.00001
C          1.96325        1.67174        0.00001
H          1.88096        2.75086        0.00000
C          3.19586        1.07591        0.00001
C          3.30048       -0.34600        0.00001
C          2.18338       -1.13709        0.00001
H         -0.59008        2.55841        0.00000
H         -5.08558        0.95952       -0.00001
H         -3.06163        2.36876        0.00001
H         -2.67258       -2.59638        0.00000
H         -4.88937       -1.51971       -0.00000
H         -0.20399       -2.40320        0.00001
H          4.09710        1.67728        0.00003
H          2.29601       -2.21158        0.00002
O          4.54751       -0.97289        0.00002
H          5.27519       -0.32984       -0.00027
