17
TYHJ
Si         0.00000        0.00000        0.00000
Si         1.38391        1.38391        1.38391
H          0.54486        2.25285        2.25285
H          2.25285        0.54486        2.25285
H          2.25285        2.25285        0.54486
Si        -1.38391       -1.38391        1.38391
H         -2.25285       -2.25285        0.54486
H         -0.54486       -2.25285        2.25285
H         -2.25285       -0.54486        2.25285
Si        -1.38391        1.38391       -1.38391
H         -0.54486        2.25285       -2.25285
H         -2.25285        0.54486       -2.25285
H         -2.25285        2.25285       -0.54486
Si         1.38391       -1.38391       -1.38391
H          0.54486       -2.25285       -2.25285
H          2.25285       -0.54486       -2.25285
H          2.25285       -2.25285       -0.54486
